LTspice 24.1.9 for Windows
Circuit: C:\Users\caorsi\source\repos\Jcaorsi\Labo_TC1\Labo_TC1\TP3_RespuestaTransitoria\EsquematicoConSimulacionTP3.net
Start Time: Thu Oct  2 19:33:46 2025
solver = Normal
Maximum thread count: 8
tnom = 27
temp = 27
method = trap
.OP point found by inspection.
Total elapsed time: 0.058 seconds.

Files loaded:
C:\Users\caorsi\source\repos\Jcaorsi\Labo_TC1\Labo_TC1\TP3_RespuestaTransitoria\EsquematicoConSimulacionTP3.net

